tests/data/power_flow/pandapower/components/pp-asym-asym_load/pgm_asym_output.json
{
  "asym_load": [
    {
      "id": 5,
      "energized": 1,
      "p": [
        10000.0,
        9000.0,
        10500.0
      ],
      "q": [
        2000.0,
        1500.0,
        2500.0
      ],
      "i": [
        1.682320082092995,
        1.5051505569300487,
        1.7805639724856142
      ],
      "s": [
        10198.03902718557,
        9124.14379544733,
        10793.51657246145
      ],
      "pf": [
        0.9805806756909201,
        0.9863939238321437,
        0.972806214685367
      ]
    },
    {
      "id": 6,
      "energized": 1,
      "p": [
        -0.0,
        -0.0,
        -0.0
      ],
      "q": [
        -0.0,
        -0.0,
        -0.0
      ],
      "i": [
        0.0,
        0.0,
        0.0
      ],
      "s": [
        0.0,
        0.0,
        0.0
      ],
      "pf": [
        0.0,
        0.0,
        0.0
      ]
    }
  ],
  "line": [
    {
      "id": 3,
      "energized": 1,
      "loading": 0.002286086780789166,
      "p_from": [
        10000.77714151833,
        9000.675235077204,
        10500.822920608154
      ],
      "q_from": [
        -9544.18285031504,
        -10044.374344706823,
        -9044.075533838033
      ],
      "i_from": [
        2.2803924337922536,
        2.224792954756845,
        2.2860867807891663
      ],
      "s_from": [
        13824.144447833409,
        13487.090518860496,
        13858.664591934437
      ],
      "p_to": [
        -9999.999999988602,
        -8999.999999996688,
        -10499.999999999585
      ],
      "q_to": [
        -2000.000000000139,
        -1499.999999980386,
        -2499.9999999731544
      ],
      "i_to": [
        1.6823200820911557,
        1.505150556928978,
        1.7805639724845226
      ],
      "s_to": [
        10198.03902717442,
        9124.143795440837,
        10793.51657245483
      ]
    }
  ],
  "node": [
    {
      "id": 1,
      "energized": 1,
      "u_pu": [
        1.0000000000000002,
        1.0,
        1.0000000000000002
      ],
      "u": [
        6062.177826491073,
        6062.177826491072,
        6062.177826491073
      ],
      "u_angle": [
        -3.119842358827175e-16,
        -2.0943951023931957,
        2.0943951023931953
      ]
    },
    {
      "id": 2,
      "energized": 1,
      "u_pu": [
        0.9999524959138172,
        0.9999620212973988,
        0.9999463725151119
      ],
      "u": [
        6061.8898482731465,
        6061.9475928422835,
        6061.852727141292
      ],
      "u_angle": [
        -8.008630833972594e-05,
        -2.0944731477929284,
        2.094315696383955
      ]
    }
  ],
  "source": [
    {
      "id": 4,
      "energized": 1,
      "p": [
        9611.38844946536,
        6009.826894816029,
        14522.019684932417
      ],
      "q": [
        -8399.541051071514,
        -4320.183792544091,
        -9686.891137806018
      ],
      "i": [
        2.1055874988977137,
        1.2209286897673426,
        2.8795545557129247
      ],
      "s": [
        12764.445847554514,
        7401.4868308343775,
        17456.371777814235
      ],
      "pf": [
        0.7529812546705084,
        0.8119756249216395,
        0.8319036664531192
      ]
    }
  ]
}